


ARM Macro Assembler    Page 1 


    1 00000000                 AREA             ISP_IROM1, CODE, READONLY
    2 00000000         
    3 00000000 78 07 00 
              20 49 00 
              06 08 51 
              00 06 08 
              4D 1A 06 
              08 55 00 
              06 08 57 
              00 06 08 
              59 00 06 
              08 00 00 
              00 00 00 
              00 00 00 
              00 00 00 
              00 00 00 
              00 00 5B 
              00 06 08 
              5D 00 06 
              08 00 00 
              00 00 5F 
              00 06 08 
              8D 1D 06 
              08 C1 20 
              06 08 9D 
              1C 06 08 
              15 1E 06 
              08 F9 1C 
              06 08 A5 
              12 06 08 
              B9 1C 06 
              08 A9 11 
              06 08 ED 
              11 06 08 
              0D 12 06 
              08 2D 12 
              06 08 4D 
              12 06 08 
              2D 0F 06 
              08 51 0F 
              06 08 75 
              0F 06 08 
              99 0F 06 
              08 BD 0F 
              06 08 E1 
              0F 06 08 
              05 10 06 
              08 F5 0D 
              06 08 71 
              0E 06 08 
              11 0E 06 
              08 31 0E 
              06 08 51 
              0E 06 08 
              6D 12 06 
              08 39 1E 
              06 08 AD 
              1E 06 08 
              81 1E 06 



ARM Macro Assembler    Page 2 


              08 61 1E 
              06 08 63 
              00 06 08 
              D5 1E 06 
              08 F1 1E 
              06 08 71 
              1A 06 08 
              51 1A 06 
              08 B1 1A 
              06 08 91 
              1A 06 08 
              35 1D 06 
              08 55 1D 
              06 08 41 
              20 06 08 
              61 20 06 
              08 81 20 
              06 08 C9 
              11 06 08 
              D5 1C 06 
              08 E5 1B 
              06 08 65 
              1F 06 08 
              D9 1F 06 
              08 AD 1F 
              06 08 8D 
              1F 06 08 
              29 10 06 
              08 C5 12 
              06 08 19 
              1D 06 08 
              0D 1F 06 
              08 71 1D 
              06 08 01 
              20 06 08 
              21 20 06 
              08 29 1F 
              06 08 49 
              1F 06 08 
              4D 10 06 
              08 71 10 
              06 08 95 
              10 06 08 
              B9 10 06 
              08 DD 10 
              06 08 6D 
              11 06 08 
              89 11 06 
              08 F1 0E 
              06 08 91 
              0E 06 08 
              B1 0E 06 
              08 D1 0E 
              06 08 C5 
              1B 06 08 
              01 11 06 
              08 25 11 
              06 08 49 
              11 06 08 



ARM Macro Assembler    Page 3 


              A1 20 06 
              08 F1 1A 
              06 08 D1 
              1A 06 08 
              31 1C 06 
              08 09 1C 
              06 08 79 
              1C 06 08 
              59 1C 06 
              08 11 0F 
              06 08 00 
              00 00 00 
              2D 1A 06 
              08 00 F0 
              02 F8 5F 
              F0 4B FF 
              0A A0 90 
              E8 00 0C 
              82 44 83 
              44 AA F1 
              01 07 DA 
              45 01 D1 
              5F F0 40 
              FF AF F2 
              09 0E BA 
              E8 0F 00 
              13 F0 01 
              0F 18 BF 
              FB 1A 43 
              F0 01 03 
              18 47 40 
              00 00 00 
              60 00 00 
              00 10 3A 
              24 BF 78 
              C8 78 C1 
              FA D8 52 
              07 24 BF 
              30 C8 30 
              C1 44 BF 
              04 68 0C 
              60 70 47 
              00 00 00 
              23 00 24 
              00 25 00 
              26 10 3A 
              28 BF 78 
              C1 FB D8 
              52 07 28 
              BF 30 C1 
              48 BF 0B 
              60 70 47 
              70 23 06 
              08 00 00 
              00 20 1C 
              00 00 00 
              C0 01 00 
              08 8C 23 
              06 08 1C 



ARM Macro Assembler    Page 4 


              00 00 20 
              5C 07 00 
              00 DC 01 
              00 08            INCBIN           ISP\obj\ISP_part.bin\ISP_ER_IRO
M1
    4 00000218         
    5 00000218                 END
Command Line: --debug --xref --diag_suppress=9931 --cpu=Cortex-M3 --apcs=interw
ork --depend=.\app\obj\isp_bin.d -o.\app\obj\isp_bin.o -I.\RTE\_APP -IC:\Keil_v
5\ARM\PACK\ARM\CMSIS\5.5.1\CMSIS\Core\Include -IC:\Keil_v5\ARM\PACK\Keil\STM32F
2xx_DFP\2.10.0\Drivers\CMSIS\Device\ST\STM32F2xx\Include --predefine="__MICROLI
B SETA 1" --predefine="__UVISION_VERSION SETA 528" --predefine="_RTE_ SETA 1" -
-predefine="STM32F207xx SETA 1" --list=.\listings\isp_bin.lst APP\Src\ISP_bin.s



ARM Macro Assembler    Page 1 Alphabetic symbol ordering
Relocatable symbols

ISP_IROM1 00000000

Symbol: ISP_IROM1
   Definitions
      At line 1 in file APP\Src\ISP_bin.s
   Uses
      None
Comment: ISP_IROM1 unused
1 symbol
335 symbols in table
